/*--------------------------------*- C++ -*----------------------------------*\
| =========                 |                                                 |
| \\      /  F ield         | OpenFOAM: The Open Source CFD Toolbox           |
|  \\    /   O peration     | Version:  v1706                                 |
|   \\  /    A nd           | Web:      www.OpenFOAM.com                      |
|    \\/     M anipulation  |                                                 |
\*---------------------------------------------------------------------------*/
FoamFile
{
    version     2.0;
    format      ascii;
    class       polyBoundaryMesh;
    location    "constant/polyMesh";
    object      boundary;
}
// * * * * * * * * * * * * * * * * * * * * * * * * * * * * * * * * * * * * * //

6
(
    cone
    {
        type            wall;
        inGroups        1(wall);
        nFaces          147;
        startFace       59599;
    }
    inlet
    {
        type            patch;
        nFaces          157;
        startFace       59746;
    }
    rWedge
    {
        type            wedge;
        inGroups        1(wedge);
        nFaces          29987;
        startFace       59903;
    }
    lWedge
    {
        type            wedge;
        inGroups        1(wedge);
        nFaces          29987;
        startFace       89890;
    }
    outlet
    {
        type            patch;
        nFaces          0;
        startFace       119877;
    }
    procBoundary3to2
    {
        type            processor;
        inGroups        1(processor);
        nFaces          246;
        startFace       119877;
        matchTolerance  0.0001;
        transform       unknown;
        myProcNo        3;
        neighbProcNo    2;
    }
)

// ************************************************************************* //
