/*--------------------------------*- C++ -*----------------------------------*\
| =========                 |                                                 |
| \\      /  F ield         | OpenFOAM: The Open Source CFD Toolbox           |
|  \\    /   O peration     | Version:  v1706                                 |
|   \\  /    A nd           | Web:      www.OpenFOAM.com                      |
|    \\/     M anipulation  |                                                 |
\*---------------------------------------------------------------------------*/
FoamFile
{
    version     2.0;
    format      ascii;
    class       polyBoundaryMesh;
    location    "constant/polyMesh";
    object      boundary;
}
// * * * * * * * * * * * * * * * * * * * * * * * * * * * * * * * * * * * * * //

7
(
    cone
    {
        type            wall;
        inGroups        1(wall);
        nFaces          181;
        startFace       59328;
    }
    inlet
    {
        type            patch;
        nFaces          105;
        startFace       59509;
    }
    rWedge
    {
        type            wedge;
        inGroups        1(wedge);
        nFaces          29871;
        startFace       59614;
    }
    lWedge
    {
        type            wedge;
        inGroups        1(wedge);
        nFaces          29871;
        startFace       89485;
    }
    outlet
    {
        type            patch;
        nFaces          0;
        startFace       119356;
    }
    procBoundary1to0
    {
        type            processor;
        inGroups        1(processor);
        nFaces          306;
        startFace       119356;
        matchTolerance  0.0001;
        transform       unknown;
        myProcNo        1;
        neighbProcNo    0;
    }
    procBoundary1to2
    {
        type            processor;
        inGroups        1(processor);
        nFaces          236;
        startFace       119662;
        matchTolerance  0.0001;
        transform       unknown;
        myProcNo        1;
        neighbProcNo    2;
    }
)

// ************************************************************************* //
