/*--------------------------------*- C++ -*----------------------------------*\
| =========                 |                                                 |
| \\      /  F ield         | OpenFOAM: The Open Source CFD Toolbox           |
|  \\    /   O peration     | Version:  v1706                                 |
|   \\  /    A nd           | Web:      www.OpenFOAM.com                      |
|    \\/     M anipulation  |                                                 |
\*---------------------------------------------------------------------------*/
FoamFile
{
    version     2.0;
    format      ascii;
    class       polyBoundaryMesh;
    location    "constant/polyMesh";
    object      boundary;
}
// * * * * * * * * * * * * * * * * * * * * * * * * * * * * * * * * * * * * * //

7
(
    cone
    {
        type            wall;
        inGroups        1(wall);
        nFaces          119;
        startFace       59779;
    }
    inlet
    {
        type            patch;
        nFaces          210;
        startFace       59898;
    }
    rWedge
    {
        type            wedge;
        inGroups        1(wedge);
        nFaces          30104;
        startFace       60108;
    }
    lWedge
    {
        type            wedge;
        inGroups        1(wedge);
        nFaces          30104;
        startFace       90212;
    }
    outlet
    {
        type            patch;
        nFaces          200;
        startFace       120316;
    }
    procBoundary0to1
    {
        type            processor;
        inGroups        1(processor);
        nFaces          306;
        startFace       120516;
        matchTolerance  0.0001;
        transform       unknown;
        myProcNo        0;
        neighbProcNo    1;
    }
    procBoundary0to2
    {
        type            processor;
        inGroups        1(processor);
        nFaces          23;
        startFace       120822;
        matchTolerance  0.0001;
        transform       unknown;
        myProcNo        0;
        neighbProcNo    2;
    }
)

// ************************************************************************* //
